data/network_data/30load-feeder/Lines_oh.txt
! Imported from Lines.txt, with modified linecodes
! ----------------------------------------------------------------------------------------------
New Line.LINE0 Bus1=sourcebus.1.2.3.4 Bus2=1.1.2.3.4 phases=4 Linecode=abc4x95_lv_oh_4w_bundled Length=1 Units=m
New Line.LINE1 Bus1=1.1.2.3.4 Bus2=2.1.2.3.4 phases=4 Linecode=abc4x95_lv_oh_4w_bundled Length=0.41565 Units=m
New Line.LINE2 Bus1=2.1.2.3.4 Bus2=3.1.2.3.4 phases=4 Linecode=abc4x95_lv_oh_4w_bundled Length=0.031384 Units=m
New Line.LINE3 Bus1=3.1.2.3.4 Bus2=4.1.2.3.4 phases=4 Linecode=abc4x95_lv_oh_4w_bundled Length=0.044408 Units=m
New Line.LINE4 Bus1=4.1.2.3.4 Bus2=5.1.2.3.4 phases=4 Linecode=abc4x95_lv_oh_4w_bundled Length=0.058729 Units=m
New Line.LINE5 Bus1=5.1.2.3.4 Bus2=6.1.2.3.4 phases=4 Linecode=abc4x95_lv_oh_4w_bundled Length=0.049243 Units=m
New Line.LINE6 Bus1=6.1.2.3.4 Bus2=7.1.2.3.4 phases=4 Linecode=abc4x95_lv_oh_4w_bundled Length=0.038627 Units=m
New Line.LINE7 Bus1=7.1.2.3.4 Bus2=8.1.2.3.4 phases=4 Linecode=abc4x95_lv_oh_4w_bundled Length=0.038639 Units=m
New Line.LINE8 Bus1=8.1.2.3.4 Bus2=9.1.2.3.4 phases=4 Linecode=abc4x95_lv_oh_4w_bundled Length=0.03864 Units=m
New Line.LINE9 Bus1=9.1.2.3.4 Bus2=10.1.2.3.4 phases=4 Linecode=abc4x95_lv_oh_4w_bundled Length=0.035354 Units=m
New Line.LINE10 Bus1=10.1.2.3.4 Bus2=11.1.2.3.4 phases=4 Linecode=abc4x95_lv_oh_4w_bundled Length=0.076923 Units=m
New Line.LINE11 Bus1=11.1.2.3.4 Bus2=12.1.2.3.4 phases=4 Linecode=abc4x95_lv_oh_4w_bundled Length=1.9035 Units=m
New Line.LINE12 Bus1=12.1.2.3.4 Bus2=13.1.2.3.4 phases=4 Linecode=abc4x95_lv_oh_4w_bundled Length=0.045879 Units=m
New Line.LINE13 Bus1=13.1.2.3.4 Bus2=14.1.2.3.4 phases=4 Linecode=abc4x95_lv_oh_4w_bundled Length=0.033016 Units=m
New Line.LINE14 Bus1=14.1.2.3.4 Bus2=15.1.2.3.4 phases=4 Linecode=abc4x95_lv_oh_4w_bundled Length=0.50554 Units=m
New Line.LINE15 Bus1=15.1.2.3.4 Bus2=16.1.2.3.4 phases=4 Linecode=abc4x95_lv_oh_4w_bundled Length=0.0436 Units=m
New Line.LINE16 Bus1=16.1.2.3.4 Bus2=17.1.2.3.4 phases=4 Linecode=abc4x95_lv_oh_4w_bundled Length=0.07184 Units=m
New Line.LINE17 Bus1=17.1.2.3.4 Bus2=18.1.2.3.4 phases=4 Linecode=abc4x95_lv_oh_4w_bundled Length=5.0564 Units=m
New Line.LINE18 Bus1=18.1.2.3.4 Bus2=19.1.2.3.4 phases=4 Linecode=abc4x95_lv_oh_4w_bundled Length=3.4914 Units=m
New Line.LINE19 Bus1=19.1.2.3.4 Bus2=20.1.2.3.4 phases=4 Linecode=abc4x95_lv_oh_4w_bundled Length=10.5823 Units=m
New Line.LINE20 Bus1=20.1.2.3.4 Bus2=21.1.2.3.4 phases=4 Linecode=abc4x95_lv_oh_4w_bundled Length=0.91068 Units=m
New Line.LINE21 Bus1=21.1.2.3.4 Bus2=22.1.2.3.4 phases=4 Linecode=abc4x95_lv_oh_4w_bundled Length=0.22632 Units=m
New Line.LINE22 Bus1=22.1.2.3.4 Bus2=23.1.2.3.4 phases=4 Linecode=abc4x95_lv_oh_4w_bundled Length=0.10717 Units=m
New Line.LINE23 Bus1=23.1.2.3.4 Bus2=24.1.2.3.4 phases=4 Linecode=abc4x95_lv_oh_4w_bundled Length=0.10218 Units=m
New Line.LINE24 Bus1=24.1.2.3.4 Bus2=25.1.2.3.4 phases=4 Linecode=abc4x95_lv_oh_4w_bundled Length=0.074433 Units=m
New Line.LINE25 Bus1=25.1.2.3.4 Bus2=26.1.2.3.4 phases=4 Linecode=abc4x95_lv_oh_4w_bundled Length=0.057306 Units=m
New Line.LINE26 Bus1=26.1.2.3.4 Bus2=27.1.2.3.4 phases=4 Linecode=abc4x95_lv_oh_4w_bundled Length=0.072139 Units=m
New Line.LINE27 Bus1=27.1.2.3.4 Bus2=28.1.2.3.4 phases=4 Linecode=abc4x95_lv_oh_4w_bundled Length=0.060441 Units=m
New Line.LINE28 Bus1=28.1.2.3.4 Bus2=29.1.2.3.4 phases=4 Linecode=abc4x95_lv_oh_4w_bundled Length=0.24821 Units=m
New Line.LINE29 Bus1=29.1.2.3.4 Bus2=30.1.2.3.4 phases=4 Linecode=abc4x95_lv_oh_4w_bundled Length=4.0453 Units=m
New Line.LINE30 Bus1=29.1.2.3.4 Bus2=31.1.2.3.4 phases=4 Linecode=abc4x95_lv_oh_4w_bundled Length=4.0453 Units=m
New Line.LINE31 Bus1=30.1.2.3.4 Bus2=32.1.2.3.4 phases=4 Linecode=abc4x95_lv_oh_4w_bundled Length=7.5756 Units=m
New Line.LINE32 Bus1=30.1.2.3.4 Bus2=33.1.2.3.4 phases=4 Linecode=abc4x95_lv_oh_4w_bundled Length=3.4496 Units=m
New Line.LINE33 Bus1=32.1.2.3.4 Bus2=34.1.2.3.4 phases=4 Linecode=abc4x95_lv_oh_4w_bundled Length=2.3257 Units=m
New Line.LINE34 Bus1=32.1.2.3.4 Bus2=35.1.2.3.4 phases=4 Linecode=abc4x95_lv_oh_4w_bundled Length=2.3257 Units=m
New Line.LINE35 Bus1=32.1.2.3.4 Bus2=36.1.2.3.4 phases=4 Linecode=abc4x95_lv_oh_4w_bundled Length=4.126 Units=m
New Line.LINE36 Bus1=33.1.2.3.4 Bus2=37.1.2.3.4 phases=4 Linecode=abc4x95_lv_oh_4w_bundled Length=0.36508 Units=m
New Line.LINE37 Bus1=34.1.2.3.4 Bus2=38.1.2.3.4 phases=4 Linecode=abc4x95_lv_oh_4w_bundled Length=5.0987 Units=m
New Line.LINE38 Bus1=34.1.2.3.4 Bus2=39.1.2.3.4 phases=4 Linecode=abc4x95_lv_oh_4w_bundled Length=1.979 Units=m
New Line.LINE39 Bus1=34.1.2.3.4 Bus2=40.1.2.3.4 phases=4 Linecode=abc4x95_lv_oh_4w_bundled Length=5.0987 Units=m
New Line.LINE40 Bus1=37.1.2.3.4 Bus2=41.1.2.3.4 phases=4 Linecode=abc4x95_lv_oh_4w_bundled Length=0.18019 Units=m
New Line.LINE41 Bus1=38.1.2.3.4 Bus2=42.1.2.3.4 phases=4 Linecode=abc4x95_lv_oh_4w_bundled Length=2.1086 Units=m
New Line.LINE42 Bus1=38.1.2.3.4 Bus2=43.1.2.3.4 phases=4 Linecode=abc4x95_lv_oh_4w_bundled Length=0.31603 Units=m
New Line.LINE43 Bus1=38.1.2.3.4 Bus2=44.1.2.3.4 phases=4 Linecode=abc4x95_lv_oh_4w_bundled Length=2.1086 Units=m
New Line.LINE44 Bus1=41.1.2.3.4 Bus2=45.1.2.3.4 phases=4 Linecode=abc4x95_lv_oh_4w_bundled Length=0.0622 Units=m
New Line.LINE45 Bus1=42.1.2.3.4 Bus2=46.1.2.3.4 phases=4 Linecode=abc4x95_lv_oh_4w_bundled Length=5.7693 Units=m
New Line.LINE46 Bus1=42.1.2.3.4 Bus2=47.1.2.3.4 phases=4 Linecode=abc4x95_lv_oh_4w_bundled Length=5.7693 Units=m
New Line.LINE47 Bus1=43.1.2.3.4 Bus2=48.1.2.3.4 phases=4 Linecode=abc4x95_lv_oh_4w_bundled Length=0.14796 Units=m
New Line.LINE48 Bus1=45.1.2.3.4 Bus2=49.1.2.3.4 phases=4 Linecode=abc4x95_lv_oh_4w_bundled Length=0.058941 Units=m
New Line.LINE49 Bus1=46.1.2.3.4 Bus2=50.1.2.3.4 phases=4 Linecode=abc4x95_lv_oh_4w_bundled Length=5.2814 Units=m
New Line.LINE50 Bus1=46.1.2.3.4 Bus2=51.1.2.3.4 phases=4 Linecode=abc4x95_lv_oh_4w_bundled Length=0.69584 Units=m
New Line.LINE51 Bus1=46.1.2.3.4 Bus2=52.1.2.3.4 phases=4 Linecode=abc4x95_lv_oh_4w_bundled Length=5.2814 Units=m
New Line.LINE52 Bus1=48.1.2.3.4 Bus2=53.1.2.3.4 phases=4 Linecode=abc4x95_lv_oh_4w_bundled Length=0.14182 Units=m
New Line.LINE53 Bus1=49.1.2.3.4 Bus2=54.1.2.3.4 phases=4 Linecode=abc4x95_lv_oh_4w_bundled Length=0.060406 Units=m
New Line.LINE54 Bus1=50.1.2.3.4 Bus2=55.1.2.3.4 phases=4 Linecode=abc4x95_lv_oh_4w_bundled Length=4.3673 Units=m
New Line.LINE55 Bus1=50.1.2.3.4 Bus2=56.1.2.3.4 phases=4 Linecode=abc4x95_lv_oh_4w_bundled Length=4.3673 Units=m
New Line.LINE56 Bus1=51.1.2.3.4 Bus2=57.1.2.3.4 phases=4 Linecode=abc4x95_lv_oh_4w_bundled Length=0.40792 Units=m
New Line.LINE57 Bus1=53.1.2.3.4 Bus2=58.1.2.3.4 phases=4 Linecode=abc4x95_lv_oh_4w_bundled Length=0.24807 Units=m
New Line.LINE58 Bus1=54.1.2.3.4 Bus2=59.1.2.3.4 phases=4 Linecode=abc4x95_lv_oh_4w_bundled Length=0.075214 Units=m
New Line.LINE59 Bus1=55.1.2.3.4 Bus2=60.1.2.3.4 phases=4 Linecode=abc4x95_lv_oh_4w_bundled Length=2.9134 Units=m
New Line.LINE60 Bus1=55.1.2.3.4 Bus2=61.1.2.3.4 phases=4 Linecode=abc4x95_lv_oh_4w_bundled Length=9.5671 Units=m
New Line.LINE61 Bus1=55.1.2.3.4 Bus2=62.1.2.3.4 phases=4 Linecode=abc4x95_lv_oh_4w_bundled Length=2.9134 Units=m
New Line.LINE62 Bus1=57.1.2.3.4 Bus2=63.1.2.3.4 phases=4 Linecode=abc4x95_lv_oh_4w_bundled Length=0.34205 Units=m
New Line.LINE63 Bus1=58.1.2.3.4 Bus2=64.1.2.3.4 phases=4 Linecode=abc4x95_lv_oh_4w_bundled Length=1.4232 Units=m
New Line.LINE64 Bus1=59.1.2.3.4 Bus2=65.1.2.3.4 phases=4 Linecode=abc4x95_lv_oh_4w_bundled Length=0.11741 Units=m
New Line.LINE65 Bus1=60.1.2.3.4 Bus2=66.1.2.3.4 phases=4 Linecode=abc4x95_lv_oh_4w_bundled Length=3.3228 Units=m
New Line.LINE66 Bus1=60.1.2.3.4 Bus2=67.1.2.3.4 phases=4 Linecode=abc4x95_lv_oh_4w_bundled Length=3.3228 Units=m
New Line.LINE67 Bus1=61.1.2.3.4 Bus2=68.1.2.3.4 phases=4 Linecode=abc4x95_lv_oh_4w_bundled Length=5.0209 Units=m
New Line.LINE68 Bus1=63.1.2.3.4 Bus2=69.1.2.3.4 phases=4 Linecode=abc4x95_lv_oh_4w_bundled Length=0.17888 Units=m
New Line.LINE69 Bus1=64.1.2.3.4 Bus2=70.1.2.3.4 phases=4 Linecode=abc4x95_lv_oh_4w_bundled Length=4.7945 Units=m
New Line.LINE70 Bus1=65.1.2.3.4 Bus2=71.1.2.3.4 phases=4 Linecode=abc4x95_lv_oh_4w_bundled Length=0.091401 Units=m
New Line.LINE71 Bus1=66.1.2.3.4 Bus2=72.1.2.3.4 phases=4 Linecode=abc4x95_lv_oh_4w_bundled Length=3.6184 Units=m
New Line.LINE72 Bus1=66.1.2.3.4 Bus2=73.1.2.3.4 phases=4 Linecode=abc4x95_lv_oh_4w_bundled Length=0.27295 Units=m
New Line.LINE73 Bus1=66.1.2.3.4 Bus2=74.1.2.3.4 phases=4 Linecode=abc4x95_lv_oh_4w_bundled Length=3.6184 Units=m
New Line.LINE74 Bus1=69.1.2.3.4 Bus2=75.1.2.3.4 phases=4 Linecode=abc4x95_lv_oh_4w_bundled Length=0.092198 Units=m
New Line.LINE75 Bus1=70.1.2.3.4 Bus2=76.1.2.3.4 phases=4 Linecode=abc4x95_lv_oh_4w_bundled Length=5.7379 Units=m
New Line.LINE76 Bus1=71.1.2.3.4 Bus2=77.1.2.3.4 phases=4 Linecode=abc4x95_lv_oh_4w_bundled Length=0.071119 Units=m
New Line.LINE77 Bus1=72.1.2.3.4 Bus2=78.1.2.3.4 phases=4 Linecode=abc4x95_lv_oh_4w_bundled Length=0.78294 Units=m
New Line.LINE78 Bus1=72.1.2.3.4 Bus2=79.1.2.3.4 phases=4 Linecode=abc4x95_lv_oh_4w_bundled Length=0.78294 Units=m
New Line.LINE79 Bus1=73.1.2.3.4 Bus2=80.1.2.3.4 phases=4 Linecode=abc4x95_lv_oh_4w_bundled Length=0.18028 Units=m
New Line.LINE80 Bus1=75.1.2.3.4 Bus2=81.1.2.3.4 phases=4 Linecode=abc4x95_lv_oh_4w_bundled Length=0.10295 Units=m
New Line.LINE81 Bus1=77.1.2.3.4 Bus2=82.1.2.3.4 phases=4 Linecode=abc4x95_lv_oh_4w_bundled Length=0.080056 Units=m
New Line.LINE82 Bus1=78.1.2.3.4 Bus2=83.1.2.3.4 phases=4 Linecode=abc4x95_lv_oh_4w_bundled Length=9.282 Units=m
New Line.LINE83 Bus1=78.1.2.3.4 Bus2=84.1.2.3.4 phases=4 Linecode=abc4x95_lv_oh_4w_bundled Length=0.40804 Units=m
New Line.LINE84 Bus1=78.1.2.3.4 Bus2=85.1.2.3.4 phases=4 Linecode=abc4x95_lv_oh_4w_bundled Length=9.282 Units=m
New Line.LINE85 Bus1=80.1.2.3.4 Bus2=86.1.2.3.4 phases=4 Linecode=abc4x95_lv_oh_4w_bundled Length=0.11045 Units=m
New Line.LINE86 Bus1=81.1.2.3.4 Bus2=87.1.2.3.4 phases=4 Linecode=abc4x95_lv_oh_4w_bundled Length=6.3044 Units=m
New Line.LINE87 Bus1=82.1.2.3.4 Bus2=88.1.2.3.4 phases=4 Linecode=abc4x95_lv_oh_4w_bundled Length=3.059 Units=m
New Line.LINE88 Bus1=83.1.2.3.4 Bus2=89.1.2.3.4 phases=4 Linecode=abc4x95_lv_oh_4w_bundled Length=0.59363 Units=m
New Line.LINE89 Bus1=83.1.2.3.4 Bus2=90.1.2.3.4 phases=4 Linecode=abc4x95_lv_oh_4w_bundled Length=0.59363 Units=m
New Line.LINE90 Bus1=84.1.2.3.4 Bus2=91.1.2.3.4 phases=4 Linecode=abc4x95_lv_oh_4w_bundled Length=0.19235 Units=m
New Line.LINE91 Bus1=86.1.2.3.4 Bus2=92.1.2.3.4 phases=4 Linecode=abc4x95_lv_oh_4w_bundled Length=0.070711 Units=m
New Line.LINE92 Bus1=87.1.2.3.4 Bus2=93.1.2.3.4 phases=4 Linecode=abc4x95_lv_oh_4w_bundled Length=0.080622 Units=m
New Line.LINE93 Bus1=88.1.2.3.4 Bus2=94.1.2.3.4 phases=4 Linecode=abc4x95_lv_oh_4w_bundled Length=1.1504 Units=m
New Line.LINE94 Bus1=89.1.2.3.4 Bus2=95.1.2.3.4 phases=4 Linecode=abc4x95_lv_oh_4w_bundled Length=11.9463 Units=m
New Line.LINE95 Bus1=89.1.2.3.4 Bus2=96.1.2.3.4 phases=4 Linecode=abc4x95_lv_oh_4w_bundled Length=0.20025 Units=m
New Line.LINE96 Bus1=89.1.2.3.4 Bus2=97.1.2.3.4 phases=4 Linecode=abc4x95_lv_oh_4w_bundled Length=11.9463 Units=m
New Line.LINE97 Bus1=91.1.2.3.4 Bus2=98.1.2.3.4 phases=4 Linecode=abc4x95_lv_oh_4w_bundled Length=0.080623 Units=m
New Line.LINE98 Bus1=92.1.2.3.4 Bus2=99.1.2.3.4 phases=4 Linecode=abc4x95_lv_oh_4w_bundled Length=0.067082 Units=m
New Line.LINE99 Bus1=93.1.2.3.4 Bus2=100.1.2.3.4 phases=4 Linecode=abc4x95_lv_oh_4w_bundled Length=0.090554 Units=m
New Line.LINE100 Bus1=94.1.2.3.4 Bus2=101.1.2.3.4 phases=4 Linecode=abc4x95_lv_oh_4w_bundled Length=0.40003 Units=m
New Line.LINE101 Bus1=95.1.2.3.4 Bus2=102.1.2.3.4 phases=4 Linecode=abc4x95_lv_oh_4w_bundled Length=0.044721 Units=m
New Line.LINE102 Bus1=95.1.2.3.4 Bus2=103.1.2.3.4 phases=4 Linecode=abc4x95_lv_oh_4w_bundled Length=0.39294 Units=m
New Line.LINE103 Bus1=95.1.2.3.4 Bus2=104.1.2.3.4 phases=4 Linecode=abc4x95_lv_oh_4w_bundled Length=0.044721 Units=m
New Line.LINE104 Bus1=96.1.2.3.4 Bus2=105.1.2.3.4 phases=4 Linecode=abc4x95_lv_oh_4w_bundled Length=0.11402 Units=m
New Line.LINE105 Bus1=98.1.2.3.4 Bus2=106.1.2.3.4 phases=4 Linecode=abc4x95_lv_oh_4w_bundled Length=0.094868 Units=m
New Line.LINE106 Bus1=99.1.2.3.4 Bus2=107.1.2.3.4 phases=4 Linecode=abc4x95_lv_oh_4w_bundled Length=0.049999 Units=m
New Line.LINE107 Bus1=100.1.2.3.4 Bus2=108.1.2.3.4 phases=4 Linecode=abc4x95_lv_oh_4w_bundled Length=0.14318 Units=m
New Line.LINE108 Bus1=101.1.2.3.4 Bus2=109.1.2.3.4 phases=4 Linecode=abc4x95_lv_oh_4w_bundled Length=0.41013 Units=m
New Line.LINE109 Bus1=102.1.2.3.4 Bus2=110.1.2.3.4 phases=4 Linecode=abc4x95_lv_oh_4w_bundled Length=4.1679 Units=m
New Line.LINE110 Bus1=102.1.2.3.4 Bus2=111.1.2.3.4 phases=4 Linecode=abc4x95_lv_oh_4w_bundled Length=4.1679 Units=m
New Line.LINE111 Bus1=103.1.2.3.4 Bus2=112.1.2.3.4 phases=4 Linecode=abc4x95_lv_oh_4w_bundled Length=0.14142 Units=m
New Line.LINE112 Bus1=105.1.2.3.4 Bus2=113.1.2.3.4 phases=4 Linecode=abc4x95_lv_oh_4w_bundled Length=0.086023 Units=m
New Line.LINE113 Bus1=106.1.2.3.4 Bus2=114.1.2.3.4 phases=4 Linecode=abc4x95_lv_oh_4w_bundled Length=0.11705 Units=m
New Line.LINE114 Bus1=107.1.2.3.4 Bus2=115.1.2.3.4 phases=4 Linecode=abc4x95_lv_oh_4w_bundled Length=0.082461 Units=m
New Line.LINE115 Bus1=108.1.2.3.4 Bus2=116.1.2.3.4 phases=4 Linecode=abc4x95_lv_oh_4w_bundled Length=0.10817 Units=m
New Line.LINE116 Bus1=109.1.2.3.4 Bus2=117.1.2.3.4 phases=4 Linecode=abc4x95_lv_oh_4w_bundled Length=0.17603 Units=m
New Line.LINE117 Bus1=110.1.2.3.4 Bus2=118.1.2.3.4 phases=4 Linecode=abc4x95_lv_oh_4w_bundled Length=14.8117 Units=m
New Line.LINE118 Bus1=110.1.2.3.4 Bus2=119.1.2.3.4 phases=4 Linecode=abc4x95_lv_oh_4w_bundled Length=3.9325 Units=m
New Line.LINE119 Bus1=112.1.2.3.4 Bus2=120.1.2.3.4 phases=4 Linecode=abc4x95_lv_oh_4w_bundled Length=0.12 Units=m
New Line.LINE120 Bus1=113.1.2.3.4 Bus2=121.1.2.3.4 phases=4 Linecode=abc4x95_lv_oh_4w_bundled Length=0.092195 Units=m
New Line.LINE121 Bus1=114.1.2.3.4 Bus2=122.1.2.3.4 phases=4 Linecode=abc4x95_lv_oh_4w_bundled Length=0.22627 Units=m
New Line.LINE122 Bus1=115.1.2.3.4 Bus2=123.1.2.3.4 phases=4 Linecode=abc4x95_lv_oh_4w_bundled Length=0.08 Units=m
New Line.LINE123 Bus1=116.1.2.3.4 Bus2=124.1.2.3.4 phases=4 Linecode=abc4x95_lv_oh_4w_bundled Length=0.13 Units=m
New Line.LINE124 Bus1=117.1.2.3.4 Bus2=125.1.2.3.4 phases=4 Linecode=abc4x95_lv_oh_4w_bundled Length=0.16819 Units=m
New Line.LINE125 Bus1=118.1.2.3.4 Bus2=126.1.2.3.4 phases=4 Linecode=abc4x95_lv_oh_4w_bundled Length=0.31257 Units=m
New Line.LINE126 Bus1=118.1.2.3.4 Bus2=127.1.2.3.4 phases=4 Linecode=abc4x95_lv_oh_4w_bundled Length=10.8792 Units=m
New Line.LINE127 Bus1=118.1.2.3.4 Bus2=128.1.2.3.4 phases=4 Linecode=abc4x95_lv_oh_4w_bundled Length=7.2907 Units=m
New Line.LINE128 Bus1=118.1.2.3.4 Bus2=129.1.2.3.4 phases=4 Linecode=abc4x95_lv_oh_4w_bundled Length=1.3995 Units=m
New Line.LINE129 Bus1=119.1.2.3.4 Bus2=130.1.2.3.4 phases=4 Linecode=abc4x95_lv_oh_4w_bundled Length=9.2395 Units=m
New Line.LINE130 Bus1=120.1.2.3.4 Bus2=131.1.2.3.4 phases=4 Linecode=abc4x95_lv_oh_4w_bundled Length=0.11705 Units=m
New Line.LINE131 Bus1=121.1.2.3.4 Bus2=132.1.2.3.4 phases=4 Linecode=abc4x95_lv_oh_4w_bundled Length=7.7798 Units=m
New Line.LINE132 Bus1=122.1.2.3.4 Bus2=133.1.2.3.4 phases=4 Linecode=abc4x95_lv_oh_4w_bundled Length=0.13454 Units=m
New Line.LINE133 Bus1=123.1.2.3.4 Bus2=134.1.2.3.4 phases=4 Linecode=abc4x95_lv_oh_4w_bundled Length=0.090554 Units=m
New Line.LINE134 Bus1=124.1.2.3.4 Bus2=135.1.2.3.4 phases=4 Linecode=abc4x95_lv_oh_4w_bundled Length=2.3808 Units=m
New Line.LINE135 Bus1=125.1.2.3.4 Bus2=136.1.2.3.4 phases=4 Linecode=abc4x95_lv_oh_4w_bundled Length=0.10394 Units=m
New Line.LINE136 Bus1=126.1.2.3.4 Bus2=137.1.2.3.4 phases=4 Linecode=abc4x95_lv_oh_4w_bundled Length=0.14 Units=m
New Line.LINE137 Bus1=128.1.2.3.4 Bus2=138.1.2.3.4 phases=4 Linecode=abc4x95_lv_oh_4w_bundled Length=8.4557 Units=m
New Line.LINE138 Bus1=128.1.2.3.4 Bus2=139.1.2.3.4 phases=4 Linecode=abc4x95_lv_oh_4w_bundled Length=10.4189 Units=m
New Line.LINE139 Bus1=129.1.2.3.4 Bus2=140.1.2.3.4 phases=4 Linecode=abc4x95_lv_oh_4w_bundled Length=0.44161 Units=m
New Line.LINE140 Bus1=129.1.2.3.4 Bus2=141.1.2.3.4 phases=4 Linecode=abc4x95_lv_oh_4w_bundled Length=16.3101 Units=m
New Line.LINE141 Bus1=130.1.2.3.4 Bus2=142.1.2.3.4 phases=4 Linecode=abc4x95_lv_oh_4w_bundled Length=6.5731 Units=m
New Line.LINE142 Bus1=131.1.2.3.4 Bus2=143.1.2.3.4 phases=4 Linecode=abc4x95_lv_oh_4w_bundled Length=0.14866 Units=m
New Line.LINE143 Bus1=132.1.2.3.4 Bus2=144.1.2.3.4 phases=4 Linecode=abc4x95_lv_oh_4w_bundled Length=5.724 Units=m
New Line.LINE144 Bus1=133.1.2.3.4 Bus2=145.1.2.3.4 phases=4 Linecode=abc4x95_lv_oh_4w_bundled Length=0.17205 Units=m
New Line.LINE145 Bus1=134.1.2.3.4 Bus2=146.1.2.3.4 phases=4 Linecode=abc4x95_lv_oh_4w_bundled Length=0.092195 Units=m
New Line.LINE146 Bus1=135.1.2.3.4 Bus2=147.1.2.3.4 phases=4 Linecode=abc4x95_lv_oh_4w_bundled Length=0.21024 Units=m
New Line.LINE147 Bus1=136.1.2.3.4 Bus2=148.1.2.3.4 phases=4 Linecode=abc4x95_lv_oh_4w_bundled Length=0.16824 Units=m
New Line.LINE148 Bus1=137.1.2.3.4 Bus2=149.1.2.3.4 phases=4 Linecode=abc4x95_lv_oh_4w_bundled Length=0.1044 Units=m
New Line.LINE149 Bus1=138.1.2.3.4 Bus2=150.1.2.3.4 phases=4 Linecode=abc4x95_lv_oh_4w_bundled Length=4.9287 Units=m
New Line.LINE150 Bus1=139.1.2.3.4 Bus2=151.1.2.3.4 phases=4 Linecode=abc4x95_lv_oh_4w_bundled Length=0.41437 Units=m
New Line.LINE151 Bus1=139.1.2.3.4 Bus2=152.1.2.3.4 phases=4 Linecode=abc4x95_lv_oh_4w_bundled Length=8.2743 Units=m
New Line.LINE152 Bus1=139.1.2.3.4 Bus2=153.1.2.3.4 phases=4 Linecode=abc4x95_lv_oh_4w_bundled Length=11.615 Units=m
New Line.LINE153 Bus1=140.1.2.3.4 Bus2=154.1.2.3.4 phases=4 Linecode=abc4x95_lv_oh_4w_bundled Length=0.34366 Units=m
New Line.LINE154 Bus1=143.1.2.3.4 Bus2=155.1.2.3.4 phases=4 Linecode=abc4x95_lv_oh_4w_bundled Length=0.26249 Units=m
New Line.LINE155 Bus1=145.1.2.3.4 Bus2=156.1.2.3.4 phases=4 Linecode=abc4x95_lv_oh_4w_bundled Length=0.28601 Units=m
New Line.LINE156 Bus1=146.1.2.3.4 Bus2=157.1.2.3.4 phases=4 Linecode=abc4x95_lv_oh_4w_bundled Length=0.15811 Units=m
New Line.LINE157 Bus1=147.1.2.3.4 Bus2=158.1.2.3.4 phases=4 Linecode=abc4x95_lv_oh_4w_bundled Length=0.1118 Units=m
New Line.LINE158 Bus1=148.1.2.3.4 Bus2=159.1.2.3.4 phases=4 Linecode=abc4x95_lv_oh_4w_bundled Length=0.1023 Units=m
New Line.LINE159 Bus1=149.1.2.3.4 Bus2=160.1.2.3.4 phases=4 Linecode=abc4x95_lv_oh_4w_bundled Length=0.16643 Units=m
New Line.LINE160 Bus1=151.1.2.3.4 Bus2=161.1.2.3.4 phases=4 Linecode=abc4x95_lv_oh_4w_bundled Length=0.094868 Units=m
New Line.LINE161 Bus1=152.1.2.3.4 Bus2=162.1.2.3.4 phases=4 Linecode=abc4x95_lv_oh_4w_bundled Length=8.6746 Units=m
New Line.LINE162 Bus1=152.1.2.3.4 Bus2=163.1.2.3.4 phases=4 Linecode=abc4x95_lv_oh_4w_bundled Length=8.0963 Units=m
New Line.LINE163 Bus1=153.1.2.3.4 Bus2=164.1.2.3.4 phases=4 Linecode=abc4x95_lv_oh_4w_bundled Length=0.43786 Units=m
New Line.LINE164 Bus1=153.1.2.3.4 Bus2=165.1.2.3.4 phases=4 Linecode=abc4x95_lv_oh_4w_bundled Length=4.7556 Units=m
New Line.LINE165 Bus1=154.1.2.3.4 Bus2=166.1.2.3.4 phases=4 Linecode=abc4x95_lv_oh_4w_bundled Length=0.34015 Units=m
New Line.LINE166 Bus1=155.1.2.3.4 Bus2=167.1.2.3.4 phases=4 Linecode=abc4x95_lv_oh_4w_bundled Length=0.8092 Units=m
New Line.LINE167 Bus1=156.1.2.3.4 Bus2=168.1.2.3.4 phases=4 Linecode=abc4x95_lv_oh_4w_bundled Length=4.6439 Units=m
New Line.LINE168 Bus1=157.1.2.3.4 Bus2=169.1.2.3.4 phases=4 Linecode=abc4x95_lv_oh_4w_bundled Length=0.40249 Units=m
New Line.LINE169 Bus1=158.1.2.3.4 Bus2=170.1.2.3.4 phases=4 Linecode=abc4x95_lv_oh_4w_bundled Length=0.070711 Units=m
New Line.LINE170 Bus1=159.1.2.3.4 Bus2=171.1.2.3.4 phases=4 Linecode=abc4x95_lv_oh_4w_bundled Length=0.2708 Units=m
New Line.LINE171 Bus1=160.1.2.3.4 Bus2=172.1.2.3.4 phases=4 Linecode=abc4x95_lv_oh_4w_bundled Length=0.24042 Units=m
New Line.LINE172 Bus1=161.1.2.3.4 Bus2=173.1.2.3.4 phases=4 Linecode=abc4x95_lv_oh_4w_bundled Length=0.080624 Units=m
New Line.LINE173 Bus1=162.1.2.3.4 Bus2=174.1.2.3.4 phases=4 Linecode=abc4x95_lv_oh_4w_bundled Length=4.9357 Units=m
New Line.LINE174 Bus1=163.1.2.3.4 Bus2=175.1.2.3.4 phases=4 Linecode=abc4x95_lv_oh_4w_bundled Length=10.3231 Units=m
New Line.LINE175 Bus1=163.1.2.3.4 Bus2=176.1.2.3.4 phases=4 Linecode=abc4x95_lv_oh_4w_bundled Length=5.8718 Units=m
New Line.LINE176 Bus1=163.1.2.3.4 Bus2=177.1.2.3.4 phases=4 Linecode=abc4x95_lv_oh_4w_bundled Length=7.904 Units=m
New Line.LINE177 Bus1=164.1.2.3.4 Bus2=178.1.2.3.4 phases=4 Linecode=abc4x95_lv_oh_4w_bundled Length=0.24166 Units=m
New Line.LINE178 Bus1=166.1.2.3.4 Bus2=179.1.2.3.4 phases=4 Linecode=abc4x95_lv_oh_4w_bundled Length=0.33734 Units=m
New Line.LINE179 Bus1=167.1.2.3.4 Bus2=180.1.2.3.4 phases=4 Linecode=abc4x95_lv_oh_4w_bundled Length=7.2621 Units=m
New Line.LINE180 Bus1=168.1.2.3.4 Bus2=181.1.2.3.4 phases=4 Linecode=abc4x95_lv_oh_4w_bundled Length=0.23601 Units=m
New Line.LINE181 Bus1=170.1.2.3.4 Bus2=182.1.2.3.4 phases=4 Linecode=abc4x95_lv_oh_4w_bundled Length=0.076158 Units=m
New Line.LINE182 Bus1=171.1.2.3.4 Bus2=183.1.2.3.4 phases=4 Linecode=abc4x95_lv_oh_4w_bundled Length=0.75534 Units=m
New Line.LINE183 Bus1=172.1.2.3.4 Bus2=184.1.2.3.4 phases=4 Linecode=abc4x95_lv_oh_4w_bundled Length=6.9603 Units=m
New Line.LINE184 Bus1=173.1.2.3.4 Bus2=185.1.2.3.4 phases=4 Linecode=abc4x95_lv_oh_4w_bundled Length=0.07071 Units=m
New Line.LINE185 Bus1=175.1.2.3.4 Bus2=186.1.2.3.4 phases=4 Linecode=abc4x95_lv_oh_4w_bundled Length=0.72139 Units=m
New Line.LINE186 Bus1=175.1.2.3.4 Bus2=187.1.2.3.4 phases=4 Linecode=abc4x95_lv_oh_4w_bundled Length=0.72139 Units=m
New Line.LINE187 Bus1=175.1.2.3.4 Bus2=188.1.2.3.4 phases=4 Linecode=abc4x95_lv_oh_4w_bundled Length=0.44598 Units=m
New Line.LINE188 Bus1=175.1.2.3.4 Bus2=189.1.2.3.4 phases=4 Linecode=abc4x95_lv_oh_4w_bundled Length=2.4191 Units=m
New Line.LINE189 Bus1=176.1.2.3.4 Bus2=190.1.2.3.4 phases=4 Linecode=abc4x95_lv_oh_4w_bundled Length=1.451 Units=m
New Line.LINE190 Bus1=177.1.2.3.4 Bus2=191.1.2.3.4 phases=4 Linecode=abc4x95_lv_oh_4w_bundled Length=8.144 Units=m
New Line.LINE191 Bus1=177.1.2.3.4 Bus2=192.1.2.3.4 phases=4 Linecode=abc4x95_lv_oh_4w_bundled Length=8.144 Units=m
New Line.LINE192 Bus1=178.1.2.3.4 Bus2=193.1.2.3.4 phases=4 Linecode=abc4x95_lv_oh_4w_bundled Length=0.23345 Units=m
New Line.LINE193 Bus1=179.1.2.3.4 Bus2=194.1.2.3.4 phases=4 Linecode=abc4x95_lv_oh_4w_bundled Length=0.33615 Units=m
New Line.LINE194 Bus1=180.1.2.3.4 Bus2=195.1.2.3.4 phases=4 Linecode=abc4x95_lv_oh_4w_bundled Length=5.5011 Units=m
New Line.LINE195 Bus1=181.1.2.3.4 Bus2=196.1.2.3.4 phases=4 Linecode=abc4x95_lv_oh_4w_bundled Length=0.18028 Units=m
New Line.LINE196 Bus1=182.1.2.3.4 Bus2=197.1.2.3.4 phases=4 Linecode=abc4x95_lv_oh_4w_bundled Length=0.060827 Units=m
New Line.LINE197 Bus1=183.1.2.3.4 Bus2=198.1.2.3.4 phases=4 Linecode=abc4x95_lv_oh_4w_bundled Length=1.3136 Units=m
New Line.LINE198 Bus1=184.1.2.3.4 Bus2=199.1.2.3.4 phases=4 Linecode=abc4x95_lv_oh_4w_bundled Length=5.374 Units=m
New Line.LINE199 Bus1=185.1.2.3.4 Bus2=200.1.2.3.4 phases=4 Linecode=abc4x95_lv_oh_4w_bundled Length=0.12369 Units=m
New Line.LINE200 Bus1=186.1.2.3.4 Bus2=201.1.2.3.4 phases=4 Linecode=abc4x95_lv_oh_4w_bundled Length=3.4243 Units=m
New Line.LINE201 Bus1=186.1.2.3.4 Bus2=202.1.2.3.4 phases=4 Linecode=abc4x95_lv_oh_4w_bundled Length=3.4243 Units=m
New Line.LINE202 Bus1=188.1.2.3.4 Bus2=203.1.2.3.4 phases=4 Linecode=abc4x95_lv_oh_4w_bundled Length=0.17692 Units=m
New Line.LINE203 Bus1=190.1.2.3.4 Bus2=204.1.2.3.4 phases=4 Linecode=abc4x95_lv_oh_4w_bundled Length=5.5565 Units=m
New Line.LINE204 Bus1=191.1.2.3.4 Bus2=205.1.2.3.4 phases=4 Linecode=abc4x95_lv_oh_4w_bundled Length=4.4084 Units=m
New Line.LINE205 Bus1=193.1.2.3.4 Bus2=206.1.2.3.4 phases=4 Linecode=abc4x95_lv_oh_4w_bundled Length=0.24021 Units=m
New Line.LINE206 Bus1=194.1.2.3.4 Bus2=207.1.2.3.4 phases=4 Linecode=abc4x95_lv_oh_4w_bundled Length=0.37696 Units=m
New Line.LINE207 Bus1=196.1.2.3.4 Bus2=208.1.2.3.4 phases=4 Linecode=abc4x95_lv_oh_4w_bundled Length=0.23195 Units=m
New Line.LINE208 Bus1=197.1.2.3.4 Bus2=209.1.2.3.4 phases=4 Linecode=abc4x95_lv_oh_4w_bundled Length=0.11045 Units=m
New Line.LINE209 Bus1=198.1.2.3.4 Bus2=210.1.2.3.4 phases=4 Linecode=abc4x95_lv_oh_4w_bundled Length=0.10962 Units=m
New Line.LINE210 Bus1=200.1.2.3.4 Bus2=211.1.2.3.4 phases=4 Linecode=abc4x95_lv_oh_4w_bundled Length=0.12083 Units=m
New Line.LINE211 Bus1=201.1.2.3.4 Bus2=212.1.2.3.4 phases=4 Linecode=abc4x95_lv_oh_4w_bundled Length=0.37162 Units=m
New Line.LINE212 Bus1=201.1.2.3.4 Bus2=213.1.2.3.4 phases=4 Linecode=abc4x95_lv_oh_4w_bundled Length=0.37162 Units=m
New Line.LINE213 Bus1=203.1.2.3.4 Bus2=214.1.2.3.4 phases=4 Linecode=abc4x95_lv_oh_4w_bundled Length=0.24759 Units=m
New Line.LINE214 Bus1=206.1.2.3.4 Bus2=215.1.2.3.4 phases=4 Linecode=abc4x95_lv_oh_4w_bundled Length=0.24331 Units=m
New Line.LINE215 Bus1=207.1.2.3.4 Bus2=216.1.2.3.4 phases=4 Linecode=abc4x95_lv_oh_4w_bundled Length=0.36878 Units=m
New Line.LINE216 Bus1=208.1.2.3.4 Bus2=217.1.2.3.4 phases=4 Linecode=abc4x95_lv_oh_4w_bundled Length=0.21213 Units=m
New Line.LINE217 Bus1=209.1.2.3.4 Bus2=218.1.2.3.4 phases=4 Linecode=abc4x95_lv_oh_4w_bundled Length=0.14318 Units=m
New Line.LINE218 Bus1=210.1.2.3.4 Bus2=219.1.2.3.4 phases=4 Linecode=abc4x95_lv_oh_4w_bundled Length=0.067898 Units=m
New Line.LINE219 Bus1=211.1.2.3.4 Bus2=220.1.2.3.4 phases=4 Linecode=abc4x95_lv_oh_4w_bundled Length=0.092197 Units=m
New Line.LINE220 Bus1=212.1.2.3.4 Bus2=221.1.2.3.4 phases=4 Linecode=abc4x95_lv_oh_4w_bundled Length=0.66491 Units=m
New Line.LINE221 Bus1=212.1.2.3.4 Bus2=222.1.2.3.4 phases=4 Linecode=abc4x95_lv_oh_4w_bundled Length=0.66491 Units=m
New Line.LINE222 Bus1=214.1.2.3.4 Bus2=223.1.2.3.4 phases=4 Linecode=abc4x95_lv_oh_4w_bundled Length=0.25 Units=m
New Line.LINE223 Bus1=215.1.2.3.4 Bus2=224.1.2.3.4 phases=4 Linecode=abc4x95_lv_oh_4w_bundled Length=0.23409 Units=m
New Line.LINE224 Bus1=216.1.2.3.4 Bus2=225.1.2.3.4 phases=4 Linecode=abc4x95_lv_oh_4w_bundled Length=0.38053 Units=m
New Line.LINE225 Bus1=217.1.2.3.4 Bus2=226.1.2.3.4 phases=4 Linecode=abc4x95_lv_oh_4w_bundled Length=0.19416 Units=m
New Line.LINE226 Bus1=218.1.2.3.4 Bus2=227.1.2.3.4 phases=4 Linecode=abc4x95_lv_oh_4w_bundled Length=0.55714 Units=m
New Line.LINE227 Bus1=219.1.2.3.4 Bus2=228.1.2.3.4 phases=4 Linecode=abc4x95_lv_oh_4w_bundled Length=0.079849 Units=m
New Line.LINE228 Bus1=220.1.2.3.4 Bus2=229.1.2.3.4 phases=4 Linecode=abc4x95_lv_oh_4w_bundled Length=0.12042 Units=m
New Line.LINE229 Bus1=221.1.2.3.4 Bus2=230.1.2.3.4 phases=4 Linecode=abc4x95_lv_oh_4w_bundled Length=0.58523 Units=m
New Line.LINE230 Bus1=221.1.2.3.4 Bus2=231.1.2.3.4 phases=4 Linecode=abc4x95_lv_oh_4w_bundled Length=0.58523 Units=m
New Line.LINE231 Bus1=223.1.2.3.4 Bus2=232.1.2.3.4 phases=4 Linecode=abc4x95_lv_oh_4w_bundled Length=0.52802 Units=m
New Line.LINE232 Bus1=224.1.2.3.4 Bus2=233.1.2.3.4 phases=4 Linecode=abc4x95_lv_oh_4w_bundled Length=0.24698 Units=m
New Line.LINE233 Bus1=226.1.2.3.4 Bus2=234.1.2.3.4 phases=4 Linecode=abc4x95_lv_oh_4w_bundled Length=0.21932 Units=m
New Line.LINE234 Bus1=227.1.2.3.4 Bus2=235.1.2.3.4 phases=4 Linecode=abc4x95_lv_oh_4w_bundled Length=5.5073 Units=m
New Line.LINE235 Bus1=228.1.2.3.4 Bus2=236.1.2.3.4 phases=4 Linecode=abc4x95_lv_oh_4w_bundled Length=0.10604 Units=m
New Line.LINE236 Bus1=229.1.2.3.4 Bus2=237.1.2.3.4 phases=4 Linecode=abc4x95_lv_oh_4w_bundled Length=2.5161 Units=m
New Line.LINE237 Bus1=230.1.2.3.4 Bus2=238.1.2.3.4 phases=4 Linecode=abc4x95_lv_oh_4w_bundled Length=0.66708 Units=m
New Line.LINE238 Bus1=230.1.2.3.4 Bus2=239.1.2.3.4 phases=4 Linecode=abc4x95_lv_oh_4w_bundled Length=0.66708 Units=m
New Line.LINE239 Bus1=233.1.2.3.4 Bus2=240.1.2.3.4 phases=4 Linecode=abc4x95_lv_oh_4w_bundled Length=0.24083 Units=m
New Line.LINE240 Bus1=234.1.2.3.4 Bus2=241.1.2.3.4 phases=4 Linecode=abc4x95_lv_oh_4w_bundled Length=0.55 Units=m
New Line.LINE241 Bus1=236.1.2.3.4 Bus2=242.1.2.3.4 phases=4 Linecode=abc4x95_lv_oh_4w_bundled Length=0.129 Units=m
New Line.LINE242 Bus1=237.1.2.3.4 Bus2=243.1.2.3.4 phases=4 Linecode=abc4x95_lv_oh_4w_bundled Length=5.1871 Units=m
New Line.LINE243 Bus1=238.1.2.3.4 Bus2=244.1.2.3.4 phases=4 Linecode=abc4x95_lv_oh_4w_bundled Length=0.83528 Units=m
New Line.LINE244 Bus1=238.1.2.3.4 Bus2=245.1.2.3.4 phases=4 Linecode=abc4x95_lv_oh_4w_bundled Length=0.83528 Units=m
New Line.LINE245 Bus1=241.1.2.3.4 Bus2=246.1.2.3.4 phases=4 Linecode=abc4x95_lv_oh_4w_bundled Length=0.49659 Units=m
New Line.LINE246 Bus1=242.1.2.3.4 Bus2=247.1.2.3.4 phases=4 Linecode=abc4x95_lv_oh_4w_bundled Length=0.12618 Units=m
New Line.LINE247 Bus1=243.1.2.3.4 Bus2=248.1.2.3.4 phases=4 Linecode=abc4x95_lv_oh_4w_bundled Length=3.6109 Units=m
New Line.LINE248 Bus1=244.1.2.3.4 Bus2=249.1.2.3.4 phases=4 Linecode=abc4x95_lv_oh_4w_bundled Length=3.6733 Units=m
New Line.LINE249 Bus1=244.1.2.3.4 Bus2=250.1.2.3.4 phases=4 Linecode=abc4x95_lv_oh_4w_bundled Length=3.6733 Units=m
New Line.LINE250 Bus1=246.1.2.3.4 Bus2=251.1.2.3.4 phases=4 Linecode=abc4x95_lv_oh_4w_bundled Length=0.20125 Units=m
New Line.LINE251 Bus1=247.1.2.3.4 Bus2=252.1.2.3.4 phases=4 Linecode=abc4x95_lv_oh_4w_bundled Length=0.28486 Units=m
New Line.LINE252 Bus1=249.1.2.3.4 Bus2=253.1.2.3.4 phases=4 Linecode=abc4x95_lv_oh_4w_bundled Length=3.3374 Units=m
New Line.LINE253 Bus1=251.1.2.3.4 Bus2=254.1.2.3.4 phases=4 Linecode=abc4x95_lv_oh_4w_bundled Length=0.13416 Units=m
New Line.LINE254 Bus1=252.1.2.3.4 Bus2=255.1.2.3.4 phases=4 Linecode=abc4x95_lv_oh_4w_bundled Length=6.4586 Units=m
New Line.LINE255 Bus1=253.1.2.3.4 Bus2=256.1.2.3.4 phases=4 Linecode=abc4x95_lv_oh_4w_bundled Length=0.31623 Units=m
New Line.LINE256 Bus1=253.1.2.3.4 Bus2=257.1.2.3.4 phases=4 Linecode=abc4x95_lv_oh_4w_bundled Length=1.2215 Units=m
New Line.LINE257 Bus1=254.1.2.3.4 Bus2=258.1.2.3.4 phases=4 Linecode=abc4x95_lv_oh_4w_bundled Length=0.2832 Units=m
New Line.LINE258 Bus1=256.1.2.3.4 Bus2=259.1.2.3.4 phases=4 Linecode=abc4x95_lv_oh_4w_bundled Length=0.036054 Units=m
New Line.LINE259 Bus1=257.1.2.3.4 Bus2=260.1.2.3.4 phases=4 Linecode=abc4x95_lv_oh_4w_bundled Length=4.2138 Units=m
New Line.LINE260 Bus1=258.1.2.3.4 Bus2=261.1.2.3.4 phases=4 Linecode=abc4x95_lv_oh_4w_bundled Length=0.13602 Units=m
New Line.LINE261 Bus1=259.1.2.3.4 Bus2=262.1.2.3.4 phases=4 Linecode=abc4x95_lv_oh_4w_bundled Length=0.050001 Units=m
New Line.LINE262 Bus1=260.1.2.3.4 Bus2=263.1.2.3.4 phases=4 Linecode=abc4x95_lv_oh_4w_bundled Length=0.23901 Units=m
New Line.LINE263 Bus1=260.1.2.3.4 Bus2=264.1.2.3.4 phases=4 Linecode=abc4x95_lv_oh_4w_bundled Length=0.66068 Units=m
New Line.LINE264 Bus1=261.1.2.3.4 Bus2=265.1.2.3.4 phases=4 Linecode=abc4x95_lv_oh_4w_bundled Length=0.29069 Units=m
New Line.LINE265 Bus1=262.1.2.3.4 Bus2=266.1.2.3.4 phases=4 Linecode=abc4x95_lv_oh_4w_bundled Length=0.044721 Units=m
New Line.LINE266 Bus1=263.1.2.3.4 Bus2=267.1.2.3.4 phases=4 Linecode=abc4x95_lv_oh_4w_bundled Length=0.10296 Units=m
New Line.LINE267 Bus1=264.1.2.3.4 Bus2=268.1.2.3.4 phases=4 Linecode=abc4x95_lv_oh_4w_bundled Length=0.66603 Units=m
New Line.LINE268 Bus1=265.1.2.3.4 Bus2=269.1.2.3.4 phases=4 Linecode=abc4x95_lv_oh_4w_bundled Length=0.36222 Units=m
New Line.LINE269 Bus1=266.1.2.3.4 Bus2=270.1.2.3.4 phases=4 Linecode=abc4x95_lv_oh_4w_bundled Length=0.12042 Units=m
New Line.LINE270 Bus1=267.1.2.3.4 Bus2=271.1.2.3.4 phases=4 Linecode=abc4x95_lv_oh_4w_bundled Length=0.092194 Units=m
New Line.LINE271 Bus1=268.1.2.3.4 Bus2=272.1.2.3.4 phases=4 Linecode=abc4x95_lv_oh_4w_bundled Length=0.24042 Units=m
New Line.LINE272 Bus1=269.1.2.3.4 Bus2=273.1.2.3.4 phases=4 Linecode=abc4x95_lv_oh_4w_bundled Length=0.62169 Units=m
New Line.LINE273 Bus1=270.1.2.3.4 Bus2=274.1.2.3.4 phases=4 Linecode=abc4x95_lv_oh_4w_bundled Length=0.16763 Units=m
New Line.LINE274 Bus1=271.1.2.3.4 Bus2=275.1.2.3.4 phases=4 Linecode=abc4x95_lv_oh_4w_bundled Length=0.1005 Units=m
New Line.LINE275 Bus1=272.1.2.3.4 Bus2=276.1.2.3.4 phases=4 Linecode=abc4x95_lv_oh_4w_bundled Length=0.17029 Units=m
New Line.LINE276 Bus1=273.1.2.3.4 Bus2=277.1.2.3.4 phases=4 Linecode=abc4x95_lv_oh_4w_bundled Length=5.8415 Units=m
New Line.LINE277 Bus1=274.1.2.3.4 Bus2=278.1.2.3.4 phases=4 Linecode=abc4x95_lv_oh_4w_bundled Length=0.031624 Units=m
New Line.LINE278 Bus1=275.1.2.3.4 Bus2=279.1.2.3.4 phases=4 Linecode=abc4x95_lv_oh_4w_bundled Length=0.089999 Units=m
New Line.LINE279 Bus1=276.1.2.3.4 Bus2=280.1.2.3.4 phases=4 Linecode=abc4x95_lv_oh_4w_bundled Length=0.092196 Units=m
New Line.LINE280 Bus1=278.1.2.3.4 Bus2=281.1.2.3.4 phases=4 Linecode=abc4x95_lv_oh_4w_bundled Length=0.050001 Units=m
New Line.LINE281 Bus1=279.1.2.3.4 Bus2=282.1.2.3.4 phases=4 Linecode=abc4x95_lv_oh_4w_bundled Length=0.10198 Units=m
New Line.LINE282 Bus1=280.1.2.3.4 Bus2=283.1.2.3.4 phases=4 Linecode=abc4x95_lv_oh_4w_bundled Length=0.094868 Units=m
New Line.LINE283 Bus1=281.1.2.3.4 Bus2=284.1.2.3.4 phases=4 Linecode=abc4x95_lv_oh_4w_bundled Length=0.042427 Units=m
New Line.LINE284 Bus1=282.1.2.3.4 Bus2=285.1.2.3.4 phases=4 Linecode=abc4x95_lv_oh_4w_bundled Length=0.089443 Units=m
New Line.LINE285 Bus1=283.1.2.3.4 Bus2=286.1.2.3.4 phases=4 Linecode=abc4x95_lv_oh_4w_bundled Length=0.14 Units=m
New Line.LINE286 Bus1=284.1.2.3.4 Bus2=287.1.2.3.4 phases=4 Linecode=abc4x95_lv_oh_4w_bundled Length=0.042425 Units=m
New Line.LINE287 Bus1=285.1.2.3.4 Bus2=288.1.2.3.4 phases=4 Linecode=abc4x95_lv_oh_4w_bundled Length=0.099999 Units=m
New Line.LINE288 Bus1=286.1.2.3.4 Bus2=289.1.2.3.4 phases=4 Linecode=abc4x95_lv_oh_4w_bundled Length=0.080625 Units=m
New Line.LINE289 Bus1=287.1.2.3.4 Bus2=290.1.2.3.4 phases=4 Linecode=abc4x95_lv_oh_4w_bundled Length=0.13153 Units=m
New Line.LINE290 Bus1=288.1.2.3.4 Bus2=291.1.2.3.4 phases=4 Linecode=abc4x95_lv_oh_4w_bundled Length=0.564 Units=m
New Line.LINE291 Bus1=289.1.2.3.4 Bus2=292.1.2.3.4 phases=4 Linecode=abc4x95_lv_oh_4w_bundled Length=0.15231 Units=m
New Line.LINE292 Bus1=290.1.2.3.4 Bus2=293.1.2.3.4 phases=4 Linecode=abc4x95_lv_oh_4w_bundled Length=0.06 Units=m
New Line.LINE293 Bus1=292.1.2.3.4 Bus2=294.1.2.3.4 phases=4 Linecode=abc4x95_lv_oh_4w_bundled Length=0.19235 Units=m
New Line.LINE294 Bus1=293.1.2.3.4 Bus2=295.1.2.3.4 phases=4 Linecode=abc4x95_lv_oh_4w_bundled Length=0.092196 Units=m
New Line.LINE295 Bus1=294.1.2.3.4 Bus2=296.1.2.3.4 phases=4 Linecode=abc4x95_lv_oh_4w_bundled Length=0.29732 Units=m
New Line.LINE296 Bus1=295.1.2.3.4 Bus2=297.1.2.3.4 phases=4 Linecode=abc4x95_lv_oh_4w_bundled Length=0.13342 Units=m
New Line.LINE297 Bus1=296.1.2.3.4 Bus2=298.1.2.3.4 phases=4 Linecode=abc4x95_lv_oh_4w_bundled Length=0.61057 Units=m
New Line.LINE298 Bus1=297.1.2.3.4 Bus2=299.1.2.3.4 phases=4 Linecode=abc4x95_lv_oh_4w_bundled Length=0.31305 Units=m
New Line.LINE299 Bus1=298.1.2.3.4 Bus2=300.1.2.3.4 phases=4 Linecode=abc4x95_lv_oh_4w_bundled Length=0.35114 Units=m
New Line.LINE300 Bus1=299.1.2.3.4 Bus2=301.1.2.3.4 phases=4 Linecode=abc4x95_lv_oh_4w_bundled Length=0.20248 Units=m
New Line.LINE301 Bus1=300.1.2.3.4 Bus2=302.1.2.3.4 phases=4 Linecode=abc4x95_lv_oh_4w_bundled Length=0.20025 Units=m
New Line.LINE302 Bus1=302.1.2.3.4 Bus2=303.1.2.3.4 phases=4 Linecode=abc4x95_lv_oh_4w_bundled Length=0.57009 Units=m
New Line.LINE303 Bus1=303.1.2.3.4 Bus2=304.1.2.3.4 phases=4 Linecode=abc4x95_lv_oh_4w_bundled Length=0.34015 Units=m
New Line.LINE304 Bus1=304.1.2.3.4 Bus2=305.1.2.3.4 phases=4 Linecode=abc4x95_lv_oh_4w_bundled Length=0.42579 Units=m
New Line.LINE305 Bus1=305.1.2.3.4 Bus2=306.1.2.3.4 phases=4 Linecode=abc4x95_lv_oh_4w_bundled Length=0.27166 Units=m
New Line.LINE306 Bus1=306.1.2.3.4 Bus2=307.1.2.3.4 phases=4 Linecode=abc4x95_lv_oh_4w_bundled Length=0.20224 Units=m
New Line.LINE307 Bus1=307.1.2.3.4 Bus2=308.1.2.3.4 phases=4 Linecode=abc4x95_lv_oh_4w_bundled Length=0.14318 Units=m
New Line.LINE308 Bus1=308.1.2.3.4 Bus2=309.1.2.3.4 phases=4 Linecode=abc4x95_lv_oh_4w_bundled Length=0.23707 Units=m
New Line.LINE309 Bus1=309.1.2.3.4 Bus2=310.1.2.3.4 phases=4 Linecode=abc4x95_lv_oh_4w_bundled Length=0.31623 Units=m
New Line.LINE310 Bus1=310.1.2.3.4 Bus2=311.1.2.3.4 phases=4 Linecode=abc4x95_lv_oh_4w_bundled Length=0.50329 Units=m
New Line.LINE311 Bus1=311.1.2.3.4 Bus2=312.1.2.3.4 phases=4 Linecode=abc4x95_lv_oh_4w_bundled Length=0.086024 Units=m
New Line.LINE312 Bus1=311.1.2.3.4 Bus2=313.1.2.3.4 phases=4 Linecode=abc4x95_lv_oh_4w_bundled Length=0.086024 Units=m
New Line.LINE313 Bus1=312.1.2.3.4 Bus2=314.1.2.3.4 phases=4 Linecode=abc4x95_lv_oh_4w_bundled Length=5.692 Units=m
New Line.LINE314 Bus1=312.1.2.3.4 Bus2=315.1.2.3.4 phases=4 Linecode=abc4x95_lv_oh_4w_bundled Length=5.692 Units=m
New Line.LINE315 Bus1=314.1.2.3.4 Bus2=316.1.2.3.4 phases=4 Linecode=abc4x95_lv_oh_4w_bundled Length=13.9904 Units=m
New Line.LINE316 Bus1=314.1.2.3.4 Bus2=317.1.2.3.4 phases=4 Linecode=abc4x95_lv_oh_4w_bundled Length=13.9904 Units=m
New Line.LINE317 Bus1=316.1.2.3.4 Bus2=318.1.2.3.4 phases=4 Linecode=abc4x95_lv_oh_4w_bundled Length=1.2333 Units=m
New Line.LINE318 Bus1=316.1.2.3.4 Bus2=319.1.2.3.4 phases=4 Linecode=abc4x95_lv_oh_4w_bundled Length=1.2333 Units=m
New Line.LINE319 Bus1=318.1.2.3.4 Bus2=320.1.2.3.4 phases=4 Linecode=abc4x95_lv_oh_4w_bundled Length=0.64351 Units=m
New Line.LINE320 Bus1=318.1.2.3.4 Bus2=321.1.2.3.4 phases=4 Linecode=abc4x95_lv_oh_4w_bundled Length=0.64351 Units=m
New Line.LINE321 Bus1=320.1.2.3.4 Bus2=322.1.2.3.4 phases=4 Linecode=abc4x95_lv_oh_4w_bundled Length=0.9005 Units=m
New Line.LINE322 Bus1=320.1.2.3.4 Bus2=323.1.2.3.4 phases=4 Linecode=abc4x95_lv_oh_4w_bundled Length=0.9005 Units=m
New Line.LINE323 Bus1=322.1.2.3.4 Bus2=324.1.2.3.4 phases=4 Linecode=abc4x95_lv_oh_4w_bundled Length=1.2491 Units=m
New Line.LINE324 Bus1=322.1.2.3.4 Bus2=325.1.2.3.4 phases=4 Linecode=abc4x95_lv_oh_4w_bundled Length=1.2491 Units=m
New Line.LINE325 Bus1=322.1.2.3.4 Bus2=326.1.2.3.4 phases=4 Linecode=abc4x95_lv_oh_4w_bundled Length=0.11424 Units=m
New Line.LINE326 Bus1=324.1.2.3.4 Bus2=327.1.2.3.4 phases=4 Linecode=abc4x95_lv_oh_4w_bundled Length=1.2657 Units=m
New Line.LINE327 Bus1=324.1.2.3.4 Bus2=328.1.2.3.4 phases=4 Linecode=abc4x95_lv_oh_4w_bundled Length=1.2657 Units=m
New Line.LINE328 Bus1=326.1.2.3.4 Bus2=329.1.2.3.4 phases=4 Linecode=abc4x95_lv_oh_4w_bundled Length=2.52 Units=m
New Line.LINE329 Bus1=327.1.2.3.4 Bus2=330.1.2.3.4 phases=4 Linecode=abc4x95_lv_oh_4w_bundled Length=1.1543 Units=m
New Line.LINE330 Bus1=327.1.2.3.4 Bus2=331.1.2.3.4 phases=4 Linecode=abc4x95_lv_oh_4w_bundled Length=1.1543 Units=m
New Line.LINE331 Bus1=330.1.2.3.4 Bus2=332.1.2.3.4 phases=4 Linecode=abc4x95_lv_oh_4w_bundled Length=4.8624 Units=m
New Line.LINE332 Bus1=330.1.2.3.4 Bus2=333.1.2.3.4 phases=4 Linecode=abc4x95_lv_oh_4w_bundled Length=4.4485 Units=m
New Line.LINE333 Bus1=332.1.2.3.4 Bus2=334.1.2.3.4 phases=4 Linecode=abc4x95_lv_oh_4w_bundled Length=5.6847 Units=m
New Line.LINE334 Bus1=332.1.2.3.4 Bus2=335.1.2.3.4 phases=4 Linecode=abc4x95_lv_oh_4w_bundled Length=5.6847 Units=m
New Line.LINE335 Bus1=332.1.2.3.4 Bus2=336.1.2.3.4 phases=4 Linecode=abc4x95_lv_oh_4w_bundled Length=0.41399 Units=m
New Line.LINE336 Bus1=333.1.2.3.4 Bus2=337.1.2.3.4 phases=4 Linecode=abc4x95_lv_oh_4w_bundled Length=0.21536 Units=m
New Line.LINE337 Bus1=334.1.2.3.4 Bus2=338.1.2.3.4 phases=4 Linecode=abc4x95_lv_oh_4w_bundled Length=10.7782 Units=m
New Line.LINE338 Bus1=334.1.2.3.4 Bus2=339.1.2.3.4 phases=4 Linecode=abc4x95_lv_oh_4w_bundled Length=10.7782 Units=m
New Line.LINE339 Bus1=337.1.2.3.4 Bus2=340.1.2.3.4 phases=4 Linecode=abc4x95_lv_oh_4w_bundled Length=0.69809 Units=m
New Line.LINE340 Bus1=338.1.2.3.4 Bus2=341.1.2.3.4 phases=4 Linecode=abc4x95_lv_oh_4w_bundled Length=1.2846 Units=m
New Line.LINE341 Bus1=338.1.2.3.4 Bus2=342.1.2.3.4 phases=4 Linecode=abc4x95_lv_oh_4w_bundled Length=1.2846 Units=m
New Line.LINE342 Bus1=340.1.2.3.4 Bus2=343.1.2.3.4 phases=4 Linecode=abc4x95_lv_oh_4w_bundled Length=0.15692 Units=m
New Line.LINE343 Bus1=341.1.2.3.4 Bus2=344.1.2.3.4 phases=4 Linecode=abc4x95_lv_oh_4w_bundled Length=15.8969 Units=m
New Line.LINE344 Bus1=341.1.2.3.4 Bus2=345.1.2.3.4 phases=4 Linecode=abc4x95_lv_oh_4w_bundled Length=15.8969 Units=m
New Line.LINE345 Bus1=343.1.2.3.4 Bus2=346.1.2.3.4 phases=4 Linecode=abc4x95_lv_oh_4w_bundled Length=0.1118 Units=m
New Line.LINE346 Bus1=344.1.2.3.4 Bus2=347.1.2.3.4 phases=4 Linecode=abc4x95_lv_oh_4w_bundled Length=7.357 Units=m
New Line.LINE347 Bus1=346.1.2.3.4 Bus2=348.1.2.3.4 phases=4 Linecode=abc4x95_lv_oh_4w_bundled Length=0.1044 Units=m
New Line.LINE348 Bus1=347.1.2.3.4 Bus2=349.1.2.3.4 phases=4 Linecode=abc4x95_lv_oh_4w_bundled Length=0.649 Units=m
New Line.LINE349 Bus1=348.1.2.3.4 Bus2=350.1.2.3.4 phases=4 Linecode=abc4x95_lv_oh_4w_bundled Length=0.11045 Units=m
New Line.LINE350 Bus1=349.1.2.3.4 Bus2=351.1.2.3.4 phases=4 Linecode=abc4x95_lv_oh_4w_bundled Length=4.39 Units=m
New Line.LINE351 Bus1=349.1.2.3.4 Bus2=352.1.2.3.4 phases=4 Linecode=abc4x95_lv_oh_4w_bundled Length=0.16031 Units=m
New Line.LINE352 Bus1=350.1.2.3.4 Bus2=353.1.2.3.4 phases=4 Linecode=abc4x95_lv_oh_4w_bundled Length=0.11045 Units=m
New Line.LINE353 Bus1=351.1.2.3.4 Bus2=354.1.2.3.4 phases=4 Linecode=abc4x95_lv_oh_4w_bundled Length=4.0781 Units=m
New Line.LINE354 Bus1=351.1.2.3.4 Bus2=355.1.2.3.4 phases=4 Linecode=abc4x95_lv_oh_4w_bundled Length=0.23087 Units=m
New Line.LINE355 Bus1=352.1.2.3.4 Bus2=356.1.2.3.4 phases=4 Linecode=abc4x95_lv_oh_4w_bundled Length=0.12083 Units=m
New Line.LINE356 Bus1=353.1.2.3.4 Bus2=357.1.2.3.4 phases=4 Linecode=abc4x95_lv_oh_4w_bundled Length=0.11402 Units=m
New Line.LINE357 Bus1=354.1.2.3.4 Bus2=358.1.2.3.4 phases=4 Linecode=abc4x95_lv_oh_4w_bundled Length=4.9858 Units=m
New Line.LINE358 Bus1=354.1.2.3.4 Bus2=359.1.2.3.4 phases=4 Linecode=abc4x95_lv_oh_4w_bundled Length=0.24083 Units=m
New Line.LINE359 Bus1=355.1.2.3.4 Bus2=360.1.2.3.4 phases=4 Linecode=abc4x95_lv_oh_4w_bundled Length=0.1118 Units=m
New Line.LINE360 Bus1=356.1.2.3.4 Bus2=361.1.2.3.4 phases=4 Linecode=abc4x95_lv_oh_4w_bundled Length=0.2126 Units=m
New Line.LINE361 Bus1=357.1.2.3.4 Bus2=362.1.2.3.4 phases=4 Linecode=abc4x95_lv_oh_4w_bundled Length=0.23259 Units=m
New Line.LINE362 Bus1=358.1.2.3.4 Bus2=363.1.2.3.4 phases=4 Linecode=abc4x95_lv_oh_4w_bundled Length=4.8936 Units=m
New Line.LINE363 Bus1=358.1.2.3.4 Bus2=364.1.2.3.4 phases=4 Linecode=abc4x95_lv_oh_4w_bundled Length=0.50961 Units=m
New Line.LINE364 Bus1=359.1.2.3.4 Bus2=365.1.2.3.4 phases=4 Linecode=abc4x95_lv_oh_4w_bundled Length=0.13342 Units=m
New Line.LINE365 Bus1=360.1.2.3.4 Bus2=366.1.2.3.4 phases=4 Linecode=abc4x95_lv_oh_4w_bundled Length=0.35384 Units=m
New Line.LINE366 Bus1=361.1.2.3.4 Bus2=367.1.2.3.4 phases=4 Linecode=abc4x95_lv_oh_4w_bundled Length=5.2997 Units=m
New Line.LINE367 Bus1=362.1.2.3.4 Bus2=368.1.2.3.4 phases=4 Linecode=abc4x95_lv_oh_4w_bundled Length=0.21955 Units=m
New Line.LINE368 Bus1=363.1.2.3.4 Bus2=369.1.2.3.4 phases=4 Linecode=abc4x95_lv_oh_4w_bundled Length=6.1064 Units=m
New Line.LINE369 Bus1=363.1.2.3.4 Bus2=370.1.2.3.4 phases=4 Linecode=abc4x95_lv_oh_4w_bundled Length=0.33242 Units=m
New Line.LINE370 Bus1=364.1.2.3.4 Bus2=371.1.2.3.4 phases=4 Linecode=abc4x95_lv_oh_4w_bundled Length=0.25961 Units=m
New Line.LINE371 Bus1=365.1.2.3.4 Bus2=372.1.2.3.4 phases=4 Linecode=abc4x95_lv_oh_4w_bundled Length=0.20809 Units=m
New Line.LINE372 Bus1=366.1.2.3.4 Bus2=373.1.2.3.4 phases=4 Linecode=abc4x95_lv_oh_4w_bundled Length=2.6364 Units=m
New Line.LINE373 Bus1=367.1.2.3.4 Bus2=374.1.2.3.4 phases=4 Linecode=abc4x95_lv_oh_4w_bundled Length=6.1199 Units=m
New Line.LINE374 Bus1=369.1.2.3.4 Bus2=375.1.2.3.4 phases=4 Linecode=abc4x95_lv_oh_4w_bundled Length=15.2031 Units=m
New Line.LINE375 Bus1=369.1.2.3.4 Bus2=376.1.2.3.4 phases=4 Linecode=abc4x95_lv_oh_4w_bundled Length=0.44181 Units=m
New Line.LINE376 Bus1=370.1.2.3.4 Bus2=377.1.2.3.4 phases=4 Linecode=abc4x95_lv_oh_4w_bundled Length=0.27313 Units=m
New Line.LINE377 Bus1=371.1.2.3.4 Bus2=378.1.2.3.4 phases=4 Linecode=abc4x95_lv_oh_4w_bundled Length=0.87727 Units=m
New Line.LINE378 Bus1=372.1.2.3.4 Bus2=379.1.2.3.4 phases=4 Linecode=abc4x95_lv_oh_4w_bundled Length=0.836 Units=m
New Line.LINE379 Bus1=373.1.2.3.4 Bus2=380.1.2.3.4 phases=4 Linecode=abc4x95_lv_oh_4w_bundled Length=2.4123 Units=m
New Line.LINE380 Bus1=375.1.2.3.4 Bus2=381.1.2.3.4 phases=4 Linecode=abc4x95_lv_oh_4w_bundled Length=5.2521 Units=m
New Line.LINE381 Bus1=375.1.2.3.4 Bus2=382.1.2.3.4 phases=4 Linecode=abc4x95_lv_oh_4w_bundled Length=0.38897 Units=m
New Line.LINE382 Bus1=376.1.2.3.4 Bus2=383.1.2.3.4 phases=4 Linecode=abc4x95_lv_oh_4w_bundled Length=0.31016 Units=m
New Line.LINE383 Bus1=377.1.2.3.4 Bus2=384.1.2.3.4 phases=4 Linecode=abc4x95_lv_oh_4w_bundled Length=0.73553 Units=m
New Line.LINE384 Bus1=378.1.2.3.4 Bus2=385.1.2.3.4 phases=4 Linecode=abc4x95_lv_oh_4w_bundled Length=1.9042 Units=m
New Line.LINE385 Bus1=379.1.2.3.4 Bus2=386.1.2.3.4 phases=4 Linecode=abc4x95_lv_oh_4w_bundled Length=4.3247 Units=m
New Line.LINE386 Bus1=380.1.2.3.4 Bus2=387.1.2.3.4 phases=4 Linecode=abc4x95_lv_oh_4w_bundled Length=6.094 Units=m
New Line.LINE387 Bus1=381.1.2.3.4 Bus2=388.1.2.3.4 phases=4 Linecode=abc4x95_lv_oh_4w_bundled Length=1.4743 Units=m
New Line.LINE388 Bus1=381.1.2.3.4 Bus2=389.1.2.3.4 phases=4 Linecode=abc4x95_lv_oh_4w_bundled Length=0.36401 Units=m
New Line.LINE389 Bus1=382.1.2.3.4 Bus2=390.1.2.3.4 phases=4 Linecode=abc4x95_lv_oh_4w_bundled Length=0.201 Units=m
New Line.LINE390 Bus1=383.1.2.3.4 Bus2=391.1.2.3.4 phases=4 Linecode=abc4x95_lv_oh_4w_bundled Length=0.29698 Units=m
New Line.LINE391 Bus1=384.1.2.3.4 Bus2=392.1.2.3.4 phases=4 Linecode=abc4x95_lv_oh_4w_bundled Length=4.1166 Units=m
New Line.LINE392 Bus1=385.1.2.3.4 Bus2=393.1.2.3.4 phases=4 Linecode=abc4x95_lv_oh_4w_bundled Length=2.1829 Units=m
New Line.LINE393 Bus1=386.1.2.3.4 Bus2=394.1.2.3.4 phases=4 Linecode=abc4x95_lv_oh_4w_bundled Length=7.2862 Units=m
New Line.LINE394 Bus1=388.1.2.3.4 Bus2=395.1.2.3.4 phases=4 Linecode=abc4x95_lv_oh_4w_bundled Length=4.3328 Units=m
New Line.LINE395 Bus1=389.1.2.3.4 Bus2=396.1.2.3.4 phases=4 Linecode=abc4x95_lv_oh_4w_bundled Length=0.19026 Units=m
New Line.LINE396 Bus1=390.1.2.3.4 Bus2=397.1.2.3.4 phases=4 Linecode=abc4x95_lv_oh_4w_bundled Length=0.28018 Units=m
New Line.LINE397 Bus1=391.1.2.3.4 Bus2=398.1.2.3.4 phases=4 Linecode=abc4x95_lv_oh_4w_bundled Length=4.5437 Units=m
New Line.LINE398 Bus1=392.1.2.3.4 Bus2=399.1.2.3.4 phases=4 Linecode=abc4x95_lv_oh_4w_bundled Length=6.3728 Units=m
New Line.LINE399 Bus1=393.1.2.3.4 Bus2=400.1.2.3.4 phases=4 Linecode=abc4x95_lv_oh_4w_bundled Length=6.4832 Units=m
New Line.LINE400 Bus1=395.1.2.3.4 Bus2=401.1.2.3.4 phases=4 Linecode=abc4x95_lv_oh_4w_bundled Length=0.2327 Units=m
New Line.LINE401 Bus1=395.1.2.3.4 Bus2=402.1.2.3.4 phases=4 Linecode=abc4x95_lv_oh_4w_bundled Length=4.8591 Units=m
New Line.LINE402 Bus1=396.1.2.3.4 Bus2=403.1.2.3.4 phases=4 Linecode=abc4x95_lv_oh_4w_bundled Length=0.17464 Units=m
New Line.LINE403 Bus1=397.1.2.3.4 Bus2=404.1.2.3.4 phases=4 Linecode=abc4x95_lv_oh_4w_bundled Length=1.498 Units=m
New Line.LINE404 Bus1=398.1.2.3.4 Bus2=405.1.2.3.4 phases=4 Linecode=abc4x95_lv_oh_4w_bundled Length=6.8257 Units=m
New Line.LINE405 Bus1=401.1.2.3.4 Bus2=406.1.2.3.4 phases=4 Linecode=abc4x95_lv_oh_4w_bundled Length=0.17088 Units=m
New Line.LINE406 Bus1=402.1.2.3.4 Bus2=407.1.2.3.4 phases=4 Linecode=abc4x95_lv_oh_4w_bundled Length=2.4203 Units=m
New Line.LINE407 Bus1=402.1.2.3.4 Bus2=408.1.2.3.4 phases=4 Linecode=abc4x95_lv_oh_4w_bundled Length=0.34 Units=m
New Line.LINE408 Bus1=403.1.2.3.4 Bus2=409.1.2.3.4 phases=4 Linecode=abc4x95_lv_oh_4w_bundled Length=0.16971 Units=m
New Line.LINE409 Bus1=404.1.2.3.4 Bus2=410.1.2.3.4 phases=4 Linecode=abc4x95_lv_oh_4w_bundled Length=3.526 Units=m
New Line.LINE410 Bus1=406.1.2.3.4 Bus2=411.1.2.3.4 phases=4 Linecode=abc4x95_lv_oh_4w_bundled Length=0.65054 Units=m
New Line.LINE411 Bus1=407.1.2.3.4 Bus2=412.1.2.3.4 phases=4 Linecode=abc4x95_lv_oh_4w_bundled Length=4.058 Units=m
New Line.LINE412 Bus1=408.1.2.3.4 Bus2=413.1.2.3.4 phases=4 Linecode=abc4x95_lv_oh_4w_bundled Length=0.22136 Units=m
New Line.LINE413 Bus1=409.1.2.3.4 Bus2=414.1.2.3.4 phases=4 Linecode=abc4x95_lv_oh_4w_bundled Length=0.20518 Units=m
New Line.LINE414 Bus1=410.1.2.3.4 Bus2=415.1.2.3.4 phases=4 Linecode=abc4x95_lv_oh_4w_bundled Length=5.914 Units=m
New Line.LINE415 Bus1=411.1.2.3.4 Bus2=416.1.2.3.4 phases=4 Linecode=abc4x95_lv_oh_4w_bundled Length=4.4636 Units=m
New Line.LINE416 Bus1=412.1.2.3.4 Bus2=417.1.2.3.4 phases=4 Linecode=abc4x95_lv_oh_4w_bundled Length=0.22406 Units=m
New Line.LINE417 Bus1=412.1.2.3.4 Bus2=418.1.2.3.4 phases=4 Linecode=abc4x95_lv_oh_4w_bundled Length=2.8 Units=m
New Line.LINE418 Bus1=413.1.2.3.4 Bus2=419.1.2.3.4 phases=4 Linecode=abc4x95_lv_oh_4w_bundled Length=0.28018 Units=m
New Line.LINE419 Bus1=414.1.2.3.4 Bus2=420.1.2.3.4 phases=4 Linecode=abc4x95_lv_oh_4w_bundled Length=4.6946 Units=m
New Line.LINE420 Bus1=416.1.2.3.4 Bus2=421.1.2.3.4 phases=4 Linecode=abc4x95_lv_oh_4w_bundled Length=6.7186 Units=m
New Line.LINE421 Bus1=417.1.2.3.4 Bus2=422.1.2.3.4 phases=4 Linecode=abc4x95_lv_oh_4w_bundled Length=0.1118 Units=m
New Line.LINE422 Bus1=418.1.2.3.4 Bus2=423.1.2.3.4 phases=4 Linecode=abc4x95_lv_oh_4w_bundled Length=1.3401 Units=m
New Line.LINE423 Bus1=419.1.2.3.4 Bus2=424.1.2.3.4 phases=4 Linecode=abc4x95_lv_oh_4w_bundled Length=1.0066 Units=m
New Line.LINE424 Bus1=420.1.2.3.4 Bus2=425.1.2.3.4 phases=4 Linecode=abc4x95_lv_oh_4w_bundled Length=6.6692 Units=m
New Line.LINE425 Bus1=422.1.2.3.4 Bus2=426.1.2.3.4 phases=4 Linecode=abc4x95_lv_oh_4w_bundled Length=0.12042 Units=m
New Line.LINE426 Bus1=423.1.2.3.4 Bus2=427.1.2.3.4 phases=4 Linecode=abc4x95_lv_oh_4w_bundled Length=5.8249 Units=m
New Line.LINE427 Bus1=423.1.2.3.4 Bus2=428.1.2.3.4 phases=4 Linecode=abc4x95_lv_oh_4w_bundled Length=2.5821 Units=m
New Line.LINE428 Bus1=424.1.2.3.4 Bus2=429.1.2.3.4 phases=4 Linecode=abc4x95_lv_oh_4w_bundled Length=3.6444 Units=m
New Line.LINE429 Bus1=426.1.2.3.4 Bus2=430.1.2.3.4 phases=4 Linecode=abc4x95_lv_oh_4w_bundled Length=0.19026 Units=m
New Line.LINE430 Bus1=427.1.2.3.4 Bus2=431.1.2.3.4 phases=4 Linecode=abc4x95_lv_oh_4w_bundled Length=6.0658 Units=m
New Line.LINE431 Bus1=428.1.2.3.4 Bus2=432.1.2.3.4 phases=4 Linecode=abc4x95_lv_oh_4w_bundled Length=12.2898 Units=m
New Line.LINE432 Bus1=429.1.2.3.4 Bus2=433.1.2.3.4 phases=4 Linecode=abc4x95_lv_oh_4w_bundled Length=5.1946 Units=m
New Line.LINE433 Bus1=430.1.2.3.4 Bus2=434.1.2.3.4 phases=4 Linecode=abc4x95_lv_oh_4w_bundled Length=0.1044 Units=m
New Line.LINE434 Bus1=432.1.2.3.4 Bus2=435.1.2.3.4 phases=4 Linecode=abc4x95_lv_oh_4w_bundled Length=2.5622 Units=m
New Line.LINE435 Bus1=434.1.2.3.4 Bus2=436.1.2.3.4 phases=4 Linecode=abc4x95_lv_oh_4w_bundled Length=0.07211 Units=m
New Line.LINE436 Bus1=435.1.2.3.4 Bus2=437.1.2.3.4 phases=4 Linecode=abc4x95_lv_oh_4w_bundled Length=3.8634 Units=m
New Line.LINE437 Bus1=435.1.2.3.4 Bus2=438.1.2.3.4 phases=4 Linecode=abc4x95_lv_oh_4w_bundled Length=4.5372 Units=m
New Line.LINE438 Bus1=436.1.2.3.4 Bus2=439.1.2.3.4 phases=4 Linecode=abc4x95_lv_oh_4w_bundled Length=0.13454 Units=m
New Line.LINE439 Bus1=437.1.2.3.4 Bus2=440.1.2.3.4 phases=4 Linecode=abc4x95_lv_oh_4w_bundled Length=11.5073 Units=m
New Line.LINE440 Bus1=438.1.2.3.4 Bus2=441.1.2.3.4 phases=4 Linecode=abc4x95_lv_oh_4w_bundled Length=5.2496 Units=m
New Line.LINE441 Bus1=438.1.2.3.4 Bus2=442.1.2.3.4 phases=4 Linecode=abc4x95_lv_oh_4w_bundled Length=2.3221 Units=m
New Line.LINE442 Bus1=439.1.2.3.4 Bus2=443.1.2.3.4 phases=4 Linecode=abc4x95_lv_oh_4w_bundled Length=4.9397 Units=m
New Line.LINE443 Bus1=442.1.2.3.4 Bus2=444.1.2.3.4 phases=4 Linecode=abc4x95_lv_oh_4w_bundled Length=2.6452 Units=m
New Line.LINE444 Bus1=443.1.2.3.4 Bus2=445.1.2.3.4 phases=4 Linecode=abc4x95_lv_oh_4w_bundled Length=6.3952 Units=m
New Line.LINE445 Bus1=444.1.2.3.4 Bus2=446.1.2.3.4 phases=4 Linecode=abc4x95_lv_oh_4w_bundled Length=6.3443 Units=m
New Line.LINE446 Bus1=444.1.2.3.4 Bus2=447.1.2.3.4 phases=4 Linecode=abc4x95_lv_oh_4w_bundled Length=7.4759 Units=m
New Line.LINE447 Bus1=446.1.2.3.4 Bus2=448.1.2.3.4 phases=4 Linecode=abc4x95_lv_oh_4w_bundled Length=11.3018 Units=m
New Line.LINE448 Bus1=447.1.2.3.4 Bus2=449.1.2.3.4 phases=4 Linecode=abc4x95_lv_oh_4w_bundled Length=15.7206 Units=m
New Line.LINE449 Bus1=447.1.2.3.4 Bus2=450.1.2.3.4 phases=4 Linecode=abc4x95_lv_oh_4w_bundled Length=3.7841 Units=m
New Line.LINE450 Bus1=450.1.2.3.4 Bus2=451.1.2.3.4 phases=4 Linecode=abc4x95_lv_oh_4w_bundled Length=0.6825 Units=m
New Line.LINE451 Bus1=451.1.2.3.4 Bus2=452.1.2.3.4 phases=4 Linecode=abc4x95_lv_oh_4w_bundled Length=0.65192 Units=m
New Line.LINE452 Bus1=452.1.2.3.4 Bus2=453.1.2.3.4 phases=4 Linecode=abc4x95_lv_oh_4w_bundled Length=0.71197 Units=m
New Line.LINE453 Bus1=453.1.2.3.4 Bus2=454.1.2.3.4 phases=4 Linecode=abc4x95_lv_oh_4w_bundled Length=0.59076 Units=m
New Line.LINE454 Bus1=454.1.2.3.4 Bus2=455.1.2.3.4 phases=4 Linecode=abc4x95_lv_oh_4w_bundled Length=0.49204 Units=m
New Line.LINE455 Bus1=455.1.2.3.4 Bus2=456.1.2.3.4 phases=4 Linecode=abc4x95_lv_oh_4w_bundled Length=0.87115 Units=m
New Line.LINE456 Bus1=456.1.2.3.4 Bus2=457.1.2.3.4 phases=4 Linecode=abc4x95_lv_oh_4w_bundled Length=13.4584 Units=m
! ----------------------------------------------------------------------------------------------